Circuit: * D:\Universidad\ITBA 2022\2C 2022\Teoria de Circuitos\TP4\Cauer\LuyDami\Circuito.asc

V3: both pins shorted together -- ignoring.
No AC stimulus found:
     Set the value of a current or voltage source to "AC 1."
     to make it behave as a signal generator for AC analysis.
Direct Newton iteration for .op point succeeded.

Date: Sat Oct 15 18:56:55 2022
Total elapsed time: 0.362 seconds.

tnom = 27
temp = 27
method = trap
totiter = 18
traniter = 0
tranpoints = 0
accept = 0
rejected = 0
matrix size = 28
fillins = 32
solver = Normal
Matrix Compiler1:     153 opcodes
Matrix Compiler2: 2.85 KB object code size
