Circuit: * D:\Universidad\ITBA 2022\2C 2022\Teoria de Circuitos\TP4\Cauer\LuyDami\CircuitoAnalisis2.asc

Direct Newton iteration for .op point succeeded.
.step run=1
.step run=2
.step run=3
.step run=4
.step run=5
.step run=6
.step run=7
.step run=8
.step run=9
.step run=10

Date: Tue Oct 25 12:17:21 2022
Total elapsed time: 0.705 seconds.

tnom = 27
temp = 27
method = trap
totiter = 3
traniter = 0
tranpoints = 0
accept = 0
rejected = 0
matrix size = 15
fillins = 9
solver = Normal
Matrix Compiler1:      84 opcodes
Matrix Compiler2: 1.37 KB object code size
