Circuit: * D:\Universidad\ITBA 2022\2C 2022\Teoria de Circuitos\TP4\Cauer\LuyDami\Circuito.asc

Direct Newton iteration for .op point succeeded.

Date: Sun Oct 16 13:43:29 2022
Total elapsed time: 0.406 seconds.

tnom = 27
temp = 27
method = trap
totiter = 17
traniter = 0
tranpoints = 0
accept = 0
rejected = 0
matrix size = 32
fillins = 50
solver = Normal
Matrix Compiler1:     234 opcodes
Matrix Compiler2: 3.55 KB object code size
