Circuit: * D:\Universidad\ITBA 2022\2C 2022\Teoria de Circuitos\TP4\Cauer\LuyDami\Circuito.asc

Direct Newton iteration for .op point succeeded.

Date: Sat Oct 15 19:23:14 2022
Total elapsed time: 0.042 seconds.

tnom = 27
temp = 27
method = trap
totiter = 18
traniter = 0
tranpoints = 0
accept = 0
rejected = 0
matrix size = 31
fillins = 46
solver = Normal
Matrix Compiler1:     212 opcodes
Matrix Compiler2: 3.41 KB object code size
