Circuit: * D:\Universidad\ITBA 2022\2C 2022\Teoria de Circuitos\TP4\Cauer\LuyDami\CircuitoParaFoto.asc

Early termination of direct N-R iteration.
Direct Newton iteration failed to find .op point.  (Use ".option noopiter" to skip.)
Starting Gmin stepping
Gmin = 10
vernier = 0.5
vernier = 0.25
vernier = 0.125
Gmin = 5.5165
vernier = 0.0625
vernier = 0.03125
vernier = 0.015625
vernier = 0.0078125
Gmin = 5.48432
vernier = 0.00390625
vernier = 0.00195313
vernier = 0.000976563
vernier = 0.000488281
Gmin = 0
Gmin stepping failed

Starting source stepping with srcstepmethod=0
Source Step = 3.0303%
Source Step = 6.3447%
Source Step = 6.81818%
Source Step = 7.29167%
Source Step = 7.76515%
Source Step = 8.23864%
vernier = 0.0234375
Source Step = 8.83049%
Source Step = 9.54072%
Source Step = 10.2509%
Source Step = 10.9612%
Source Step = 11.6714%
vernier = 0.0351563
Source Step = 12.5237%
Source Step = 13.589%
Source Step = 14.6544%
Source Step = 15.7197%
Source Step = 16.785%
vernier = 0.0527344
Source Step = 18.0102%
Source Step = 19.6082%
Source Step = 21.2062%
Source Step = 22.8042%
Source Step = 24.4022%
vernier = 0.0791016
Source Step = 26.16%
Source Step = 28.5571%
Source Step = 30.9541%
Source Step = 33.3511%
Source Step = 35.7481%
vernier = 0.118652
Source Step = 38.265%
Source Step = 41.8605%
Source Step = 45.456%
Source Step = 49.0516%
Source Step = 52.6471%
Source Step = 56.2426%
vernier = 0.177979
Source Step = 61.6359%
Source Step = 67.0292%
Source Step = 72.4225%
Source Step = 77.8158%
Source Step = 83.209%
vernier = 0.266968
Source Step = 91.0293%
Source Step = 99.1192%
Source stepping succeeded in finding the operating point.


Date: Sun Oct 23 21:11:49 2022
Total elapsed time: 0.250 seconds.

tnom = 27
temp = 27
method = modified trap
totiter = 5170
traniter = 2211
tranpoints = 1105
accept = 1083
rejected = 22
matrix size = 57
fillins = 190
solver = Normal
Matrix Compiler1: 15.54 KB object code size  1.9/0.9/[0.5]
Matrix Compiler2: 8.19 KB object code size  1.2/1.3/[0.4]

